MODEL 1
REMARK VINA RESULT:      -7.8      0.000      0.000
REMARK  10 active torsions:
REMARK  status: ('A' for Active; 'I' for Inactive)
REMARK    1  A    between atoms: O_1  and  C_10 
REMARK    2  A    between atoms: O_1  and  C_16 
REMARK    3  A    between atoms: O_2  and  C_9 
REMARK    4  A    between atoms: O_3  and  C_13 
REMARK    5  A    between atoms: O_4  and  C_14 
REMARK    6  A    between atoms: O_5  and  C_15 
REMARK    7  A    between atoms: O_8  and  C_24 
REMARK    8  A    between atoms: C_9  and  C_15 
REMARK    9  A    between atoms: C_16  and  C_17 
REMARK   10  A    between atoms: C_18  and  C_19 
ROOT
HETATM    1  C   UNK N   1      12.250  18.049  43.397  0.00  0.00     0.147 C 
HETATM    2  C   UNK N   1      11.268  16.575  41.551  0.00  0.00     0.166 C 
HETATM    3  C   UNK N   1      10.991  17.684  42.581  0.00  0.00     0.084 C 
HETATM    4  C   UNK N   1      13.398  18.445  42.426  0.00  0.00     0.083 C 
HETATM    5  C   UNK N   1      12.391  17.038  40.588  0.00  0.00     0.176 C 
HETATM    6  C   UNK N   1      13.685  17.351  41.377  0.00  0.00     0.152 C 
ENDROOT
BRANCH   2   7
HETATM    7  O   UNK N   1      10.092  16.335  40.860  0.00  0.00    -0.310 OA
BRANCH   7   8
HETATM    8  C   UNK N   1       9.420  15.155  40.875  0.00  0.00     0.283 C 
HETATM    9  O   UNK N   1       9.839  14.187  40.259  0.00  0.00    -0.260 OA
BRANCH   8  10
HETATM   10  C   UNK N   1       8.183  15.054  41.675  0.00  0.00     0.083 C 
HETATM   11  C   UNK N   1       8.194  15.249  43.008  0.00  0.00     0.017 C 
BRANCH  11  12
HETATM   12  C   UNK N   1       6.984  15.207  43.874  0.00  0.00    -0.036 A 
HETATM   13  C   UNK N   1       7.143  15.469  45.245  0.00  0.00     0.014 A 
HETATM   14  C   UNK N   1       6.041  15.468  46.103  0.00  0.00     0.037 A 
HETATM   15  C   UNK N   1       4.762  15.211  45.605  0.00  0.00     0.065 A 
HETATM   16  C   UNK N   1       4.589  14.944  44.240  0.00  0.00     0.037 A 
HETATM   17  C   UNK N   1       5.689  14.939  43.377  0.00  0.00     0.014 A 
BRANCH  15  18
HETATM   18  O   UNK N   1       3.706  15.225  46.443  0.00  0.00    -0.361 OA
HETATM   19  H   UNK N   1       3.619  15.891  47.140  0.00  0.00     0.217 HD
ENDBRANCH  15  18
ENDBRANCH  11  12
ENDBRANCH   8  10
ENDBRANCH   7   8
ENDBRANCH   2   7
BRANCH   5  20
HETATM   20  O   UNK N   1      12.636  16.099  39.569  0.00  0.00    -0.390 OA
HETATM   21  H   UNK N   1      13.500  15.651  39.760  0.00  0.00     0.210 HD
ENDBRANCH   5  20
BRANCH   1  22
HETATM   22  O   UNK N   1      12.620  16.926  44.168  0.00  0.00    -0.379 OA
HETATM   23  H   UNK N   1      11.981  16.843  44.924  0.00  0.00     0.211 HD
ENDBRANCH   1  22
BRANCH   1  24
HETATM   24  C   UNK N   1      11.907  19.226  44.298  0.00  0.00     0.176 C 
HETATM   25  O   UNK N   1      12.539  20.271  44.227  0.00  0.00    -0.648 OA
BRANCH  24  26
HETATM   26  O   UNK N   1      10.901  19.112  45.194  0.00  0.00    -0.774 OA
HETATM   27  H   UNK N   1      10.617  18.248  45.525  0.00  0.00     0.167 HD
ENDBRANCH  24  26
ENDBRANCH   1  24
BRANCH   6  28
HETATM   28  O   UNK N   1      14.175  16.200  42.018  0.00  0.00    -0.393 OA
HETATM   29  H   UNK N   1      14.422  16.463  42.943  0.00  0.00     0.210 HD
ENDBRANCH   6  28
TORSDOF 10
ENDMDL
MODEL 2
REMARK VINA RESULT:      -7.5      4.078      8.223
REMARK  10 active torsions:
REMARK  status: ('A' for Active; 'I' for Inactive)
REMARK    1  A    between atoms: O_1  and  C_10 
REMARK    2  A    between atoms: O_1  and  C_16 
REMARK    3  A    between atoms: O_2  and  C_9 
REMARK    4  A    between atoms: O_3  and  C_13 
REMARK    5  A    between atoms: O_4  and  C_14 
REMARK    6  A    between atoms: O_5  and  C_15 
REMARK    7  A    between atoms: O_8  and  C_24 
REMARK    8  A    between atoms: C_9  and  C_15 
REMARK    9  A    between atoms: C_16  and  C_17 
REMARK   10  A    between atoms: C_18  and  C_19 
ROOT
HETATM    1  C   UNK N   1      11.444  18.203  43.715  0.00  0.00     0.147 C 
HETATM    2  C   UNK N   1      12.498  17.511  41.488  0.00  0.00     0.166 C 
HETATM    3  C   UNK N   1      12.344  18.629  42.534  0.00  0.00     0.084 C 
HETATM    4  C   UNK N   1      12.008  16.900  44.349  0.00  0.00     0.083 C 
HETATM    5  C   UNK N   1      13.098  16.253  42.166  0.00  0.00     0.176 C 
HETATM    6  C   UNK N   1      12.181  15.768  43.315  0.00  0.00     0.152 C 
ENDROOT
BRANCH   2   7
HETATM    7  O   UNK N   1      13.332  17.978  40.488  0.00  0.00    -0.310 OA
BRANCH   7   8
HETATM    8  C   UNK N   1      12.981  18.079  39.179  0.00  0.00     0.283 C 
HETATM    9  O   UNK N   1      12.084  18.829  38.827  0.00  0.00    -0.260 OA
BRANCH   8  10
HETATM   10  C   UNK N   1      13.725  17.282  38.183  0.00  0.00     0.083 C 
HETATM   11  C   UNK N   1      14.805  16.557  38.533  0.00  0.00     0.017 C 
BRANCH  11  12
HETATM   12  C   UNK N   1      15.579  15.696  37.596  0.00  0.00    -0.036 A 
HETATM   13  C   UNK N   1      16.342  14.650  38.140  0.00  0.00     0.014 A 
HETATM   14  C   UNK N   1      17.071  13.794  37.310  0.00  0.00     0.037 A 
HETATM   15  C   UNK N   1      17.043  13.966  35.924  0.00  0.00     0.065 A 
HETATM   16  C   UNK N   1      16.287  15.008  35.369  0.00  0.00     0.037 A 
HETATM   17  C   UNK N   1      15.561  15.871  36.195  0.00  0.00     0.014 A 
BRANCH  15  18
HETATM   18  O   UNK N   1      17.740  13.126  35.135  0.00  0.00    -0.361 OA
HETATM   19  H   UNK N   1      17.783  12.175  35.315  0.00  0.00     0.217 HD
ENDBRANCH  15  18
ENDBRANCH  11  12
ENDBRANCH   8  10
ENDBRANCH   7   8
ENDBRANCH   2   7
BRANCH   5  20
HETATM   20  O   UNK N   1      13.340  15.218  41.244  0.00  0.00    -0.390 OA
HETATM   21  H   UNK N   1      12.466  14.883  40.915  0.00  0.00     0.210 HD
ENDBRANCH   5  20
BRANCH   1  22
HETATM   22  O   UNK N   1      10.139  17.988  43.223  0.00  0.00    -0.379 OA
HETATM   23  H   UNK N   1       9.575  17.657  43.971  0.00  0.00     0.211 HD
ENDBRANCH   1  22
BRANCH   1  24
HETATM   24  C   UNK N   1      11.450  19.323  44.744  0.00  0.00     0.176 C 
HETATM   25  O   UNK N   1      12.292  20.209  44.695  0.00  0.00    -0.648 OA
BRANCH  24  26
HETATM   26  O   UNK N   1      10.524  19.333  45.728  0.00  0.00    -0.774 OA
HETATM   27  H   UNK N   1      10.467  20.065  46.358  0.00  0.00     0.167 HD
ENDBRANCH  24  26
ENDBRANCH   1  24
BRANCH   6  28
HETATM   28  O   UNK N   1      10.921  15.380  42.826  0.00  0.00    -0.393 OA
HETATM   29  H   UNK N   1      10.271  16.075  43.109  0.00  0.00     0.210 HD
ENDBRANCH   6  28
TORSDOF 10
ENDMDL
MODEL 3
REMARK VINA RESULT:      -7.5      3.215      7.521
REMARK  10 active torsions:
REMARK  status: ('A' for Active; 'I' for Inactive)
REMARK    1  A    between atoms: O_1  and  C_10 
REMARK    2  A    between atoms: O_1  and  C_16 
REMARK    3  A    between atoms: O_2  and  C_9 
REMARK    4  A    between atoms: O_3  and  C_13 
REMARK    5  A    between atoms: O_4  and  C_14 
REMARK    6  A    between atoms: O_5  and  C_15 
REMARK    7  A    between atoms: O_8  and  C_24 
REMARK    8  A    between atoms: C_9  and  C_15 
REMARK    9  A    between atoms: C_16  and  C_17 
REMARK   10  A    between atoms: C_18  and  C_19 
ROOT
HETATM    1  C   UNK N   1      11.697  16.657  44.041  0.00  0.00     0.147 C 
HETATM    2  C   UNK N   1      11.052  18.305  42.193  0.00  0.00     0.166 C 
HETATM    3  C   UNK N   1      12.084  17.271  42.679  0.00  0.00     0.084 C 
HETATM    4  C   UNK N   1      10.273  16.040  43.943  0.00  0.00     0.083 C 
HETATM    5  C   UNK N   1       9.663  17.627  42.077  0.00  0.00     0.176 C 
HETATM    6  C   UNK N   1       9.223  17.056  43.447  0.00  0.00     0.152 C 
ENDROOT
BRANCH   2   7
HETATM    7  O   UNK N   1      11.474  18.779  40.964  0.00  0.00    -0.310 OA
BRANCH   7   8
HETATM    8  C   UNK N   1      11.331  18.108  39.791  0.00  0.00     0.283 C 
HETATM    9  O   UNK N   1      10.461  18.420  38.993  0.00  0.00    -0.260 OA
BRANCH   8  10
HETATM   10  C   UNK N   1      12.268  17.009  39.485  0.00  0.00     0.083 C 
HETATM   11  C   UNK N   1      13.561  17.253  39.196  0.00  0.00     0.017 C 
BRANCH  11  12
HETATM   12  C   UNK N   1      14.575  16.197  38.920  0.00  0.00    -0.036 A 
HETATM   13  C   UNK N   1      14.889  15.297  39.951  0.00  0.00     0.014 A 
HETATM   14  C   UNK N   1      15.814  14.271  39.744  0.00  0.00     0.037 A 
HETATM   15  C   UNK N   1      16.435  14.125  38.502  0.00  0.00     0.065 A 
HETATM   16  C   UNK N   1      16.133  15.018  37.465  0.00  0.00     0.037 A 
HETATM   17  C   UNK N   1      15.212  16.050  37.668  0.00  0.00     0.014 A 
BRANCH  15  18
HETATM   18  O   UNK N   1      17.316  13.123  38.313  0.00  0.00    -0.361 OA
HETATM   19  H   UNK N   1      18.105  13.236  37.762  0.00  0.00     0.217 HD
ENDBRANCH  15  18
ENDBRANCH  11  12
ENDBRANCH   8  10
ENDBRANCH   7   8
ENDBRANCH   2   7
BRANCH   5  20
HETATM   20  O   UNK N   1       8.688  18.500  41.559  0.00  0.00    -0.390 OA
HETATM   21  H   UNK N   1       7.869  18.414  42.111  0.00  0.00     0.210 HD
ENDBRANCH   5  20
BRANCH   1  22
HETATM   22  O   UNK N   1      11.726  17.679  45.014  0.00  0.00    -0.379 OA
HETATM   23  H   UNK N   1      10.807  17.793  45.374  0.00  0.00     0.211 HD
ENDBRANCH   1  22
BRANCH   1  24
HETATM   24  C   UNK N   1      12.708  15.571  44.376  0.00  0.00     0.176 C 
HETATM   25  O   UNK N   1      12.776  14.553  43.701  0.00  0.00    -0.648 OA
BRANCH  24  26
HETATM   26  O   UNK N   1      13.531  15.727  45.437  0.00  0.00    -0.774 OA
HETATM   27  H   UNK N   1      13.855  16.600  45.698  0.00  0.00     0.167 HD
ENDBRANCH  24  26
ENDBRANCH   1  24
BRANCH   6  28
HETATM   28  O   UNK N   1       9.075  18.082  44.397  0.00  0.00    -0.393 OA
HETATM   29  H   UNK N   1       8.513  17.722  45.131  0.00  0.00     0.210 HD
ENDBRANCH   6  28
TORSDOF 10
ENDMDL
MODEL 4
REMARK VINA RESULT:      -7.5      2.099      4.590
REMARK  10 active torsions:
REMARK  status: ('A' for Active; 'I' for Inactive)
REMARK    1  A    between atoms: O_1  and  C_10 
REMARK    2  A    between atoms: O_1  and  C_16 
REMARK    3  A    between atoms: O_2  and  C_9 
REMARK    4  A    between atoms: O_3  and  C_13 
REMARK    5  A    between atoms: O_4  and  C_14 
REMARK    6  A    between atoms: O_5  and  C_15 
REMARK    7  A    between atoms: O_8  and  C_24 
REMARK    8  A    between atoms: C_9  and  C_15 
REMARK    9  A    between atoms: C_16  and  C_17 
REMARK   10  A    between atoms: C_18  and  C_19 
ROOT
HETATM    1  C   UNK N   1      14.708  15.674  40.294  0.00  0.00     0.147 C 
HETATM    2  C   UNK N   1      13.291  17.690  40.986  0.00  0.00     0.166 C 
HETATM    3  C   UNK N   1      14.571  16.877  41.252  0.00  0.00     0.084 C 
HETATM    4  C   UNK N   1      14.645  16.176  38.824  0.00  0.00     0.083 C 
HETATM    5  C   UNK N   1      13.300  18.195  39.520  0.00  0.00     0.176 C 
HETATM    6  C   UNK N   1      13.375  17.003  38.536  0.00  0.00     0.152 C 
ENDROOT
BRANCH   2   7
HETATM    7  O   UNK N   1      13.270  18.751  41.874  0.00  0.00    -0.310 OA
BRANCH   7   8
HETATM    8  C   UNK N   1      12.360  18.898  42.873  0.00  0.00     0.283 C 
HETATM    9  O   UNK N   1      12.574  19.654  43.808  0.00  0.00    -0.260 OA
BRANCH   8  10
HETATM   10  C   UNK N   1      11.092  18.146  42.793  0.00  0.00     0.083 C 
HETATM   11  C   UNK N   1      10.767  17.223  43.718  0.00  0.00     0.017 C 
BRANCH  11  12
HETATM   12  C   UNK N   1       9.491  16.456  43.730  0.00  0.00    -0.036 A 
HETATM   13  C   UNK N   1       8.969  16.023  42.500  0.00  0.00     0.014 A 
HETATM   14  C   UNK N   1       7.788  15.279  42.448  0.00  0.00     0.037 A 
HETATM   15  C   UNK N   1       7.113  14.951  43.626  0.00  0.00     0.065 A 
HETATM   16  C   UNK N   1       7.620  15.379  44.860  0.00  0.00     0.037 A 
HETATM   17  C   UNK N   1       8.799  16.128  44.917  0.00  0.00     0.014 A 
BRANCH  15  18
HETATM   18  O   UNK N   1       5.981  14.222  43.563  0.00  0.00    -0.361 OA
HETATM   19  H   UNK N   1       5.995  13.255  43.603  0.00  0.00     0.217 HD
ENDBRANCH  15  18
ENDBRANCH  11  12
ENDBRANCH   8  10
ENDBRANCH   7   8
ENDBRANCH   2   7
BRANCH   5  20
HETATM   20  O   UNK N   1      12.193  19.015  39.235  0.00  0.00    -0.390 OA
HETATM   21  H   UNK N   1      12.515  19.814  38.744  0.00  0.00     0.210 HD
ENDBRANCH   5  20
BRANCH   1  22
HETATM   22  O   UNK N   1      13.651  14.776  40.555  0.00  0.00    -0.379 OA
HETATM   23  H   UNK N   1      13.067  15.177  41.251  0.00  0.00     0.211 HD
ENDBRANCH   1  22
BRANCH   1  24
HETATM   24  C   UNK N   1      16.051  15.010  40.557  0.00  0.00     0.176 C 
HETATM   25  O   UNK N   1      16.454  14.112  39.831  0.00  0.00    -0.648 OA
BRANCH  24  26
HETATM   26  O   UNK N   1      16.799  15.407  41.610  0.00  0.00    -0.774 OA
HETATM   27  H   UNK N   1      16.973  14.815  42.355  0.00  0.00     0.167 HD
ENDBRANCH  24  26
ENDBRANCH   1  24
BRANCH   6  28
HETATM   28  O   UNK N   1      12.240  16.180  38.655  0.00  0.00    -0.393 OA
HETATM   29  H   UNK N   1      11.503  16.746  39.003  0.00  0.00     0.210 HD
ENDBRANCH   6  28
TORSDOF 10
ENDMDL
MODEL 5
REMARK VINA RESULT:      -7.4      4.455      7.803
REMARK  10 active torsions:
REMARK  status: ('A' for Active; 'I' for Inactive)
REMARK    1  A    between atoms: O_1  and  C_10 
REMARK    2  A    between atoms: O_1  and  C_16 
REMARK    3  A    between atoms: O_2  and  C_9 
REMARK    4  A    between atoms: O_3  and  C_13 
REMARK    5  A    between atoms: O_4  and  C_14 
REMARK    6  A    between atoms: O_5  and  C_15 
REMARK    7  A    between atoms: O_8  and  C_24 
REMARK    8  A    between atoms: C_9  and  C_15 
REMARK    9  A    between atoms: C_16  and  C_17 
REMARK   10  A    between atoms: C_18  and  C_19 
ROOT
HETATM    1  C   UNK N   1      16.498  13.192  37.089  0.00  0.00     0.147 C 
HETATM    2  C   UNK N   1      14.979  14.359  38.786  0.00  0.00     0.166 C 
HETATM    3  C   UNK N   1      16.143  13.372  38.581  0.00  0.00     0.084 C 
HETATM    4  C   UNK N   1      16.808  14.579  36.461  0.00  0.00     0.083 C 
HETATM    5  C   UNK N   1      15.358  15.732  38.175  0.00  0.00     0.176 C 
HETATM    6  C   UNK N   1      15.659  15.588  36.664  0.00  0.00     0.152 C 
ENDROOT
BRANCH   2   7
HETATM    7  O   UNK N   1      14.751  14.469  40.146  0.00  0.00    -0.310 OA
BRANCH   7   8
HETATM    8  C   UNK N   1      15.533  15.179  41.001  0.00  0.00     0.283 C 
HETATM    9  O   UNK N   1      16.726  14.940  41.104  0.00  0.00    -0.260 OA
BRANCH   8  10
HETATM   10  C   UNK N   1      14.917  16.266  41.787  0.00  0.00     0.083 C 
HETATM   11  C   UNK N   1      13.634  16.196  42.192  0.00  0.00     0.017 C 
BRANCH  11  12
HETATM   12  C   UNK N   1      12.957  17.231  43.022  0.00  0.00    -0.036 A 
HETATM   13  C   UNK N   1      12.122  16.798  44.065  0.00  0.00     0.014 A 
HETATM   14  C   UNK N   1      11.478  17.721  44.893  0.00  0.00     0.037 A 
HETATM   15  C   UNK N   1      11.664  19.091  44.695  0.00  0.00     0.065 A 
HETATM   16  C   UNK N   1      12.492  19.537  43.656  0.00  0.00     0.037 A 
HETATM   17  C   UNK N   1      13.134  18.617  42.821  0.00  0.00     0.014 A 
BRANCH  15  18
HETATM   18  O   UNK N   1      11.047  19.971  45.508  0.00  0.00    -0.361 OA
HETATM   19  H   UNK N   1      10.194  20.367  45.276  0.00  0.00     0.217 HD
ENDBRANCH  15  18
ENDBRANCH  11  12
ENDBRANCH   8  10
ENDBRANCH   7   8
ENDBRANCH   2   7
BRANCH   5  20
HETATM   20  O   UNK N   1      14.366  16.704  38.401  0.00  0.00    -0.390 OA
HETATM   21  H   UNK N   1      14.812  17.581  38.526  0.00  0.00     0.210 HD
ENDBRANCH   5  20
BRANCH   1  22
HETATM   22  O   UNK N   1      15.399  12.590  36.440  0.00  0.00    -0.379 OA
HETATM   23  H   UNK N   1      14.864  12.104  37.121  0.00  0.00     0.211 HD
ENDBRANCH   1  22
BRANCH   1  24
HETATM   24  C   UNK N   1      17.726  12.298  37.000  0.00  0.00     0.176 C 
HETATM   25  O   UNK N   1      17.661  11.201  36.461  0.00  0.00    -0.648 OA
BRANCH  24  26
HETATM   26  O   UNK N   1      18.897  12.714  37.531  0.00  0.00    -0.774 OA
HETATM   27  H   UNK N   1      19.080  13.653  37.672  0.00  0.00     0.167 HD
ENDBRANCH  24  26
ENDBRANCH   1  24
BRANCH   6  28
HETATM   28  O   UNK N   1      14.521  15.153  35.962  0.00  0.00    -0.393 OA
HETATM   29  H   UNK N   1      14.454  14.172  36.092  0.00  0.00     0.210 HD
ENDBRANCH   6  28
TORSDOF 10
ENDMDL
MODEL 6
REMARK VINA RESULT:      -7.3      1.962      3.800
REMARK  10 active torsions:
REMARK  status: ('A' for Active; 'I' for Inactive)
REMARK    1  A    between atoms: O_1  and  C_10 
REMARK    2  A    between atoms: O_1  and  C_16 
REMARK    3  A    between atoms: O_2  and  C_9 
REMARK    4  A    between atoms: O_3  and  C_13 
REMARK    5  A    between atoms: O_4  and  C_14 
REMARK    6  A    between atoms: O_5  and  C_15 
REMARK    7  A    between atoms: O_8  and  C_24 
REMARK    8  A    between atoms: C_9  and  C_15 
REMARK    9  A    between atoms: C_16  and  C_17 
REMARK   10  A    between atoms: C_18  and  C_19 
ROOT
HETATM    1  C   UNK N   1      11.434  18.003  40.905  0.00  0.00     0.147 C 
HETATM    2  C   UNK N   1      10.795  17.079  43.204  0.00  0.00     0.166 C 
HETATM    3  C   UNK N   1      10.759  16.852  41.682  0.00  0.00     0.084 C 
HETATM    4  C   UNK N   1      12.889  18.188  41.420  0.00  0.00     0.083 C 
HETATM    5  C   UNK N   1      12.268  17.218  43.667  0.00  0.00     0.176 C 
HETATM    6  C   UNK N   1      12.951  18.406  42.946  0.00  0.00     0.152 C 
ENDROOT
BRANCH   2   7
HETATM    7  O   UNK N   1      10.189  15.992  43.809  0.00  0.00    -0.310 OA
BRANCH   7   8
HETATM    8  C   UNK N   1       9.381  16.071  44.899  0.00  0.00     0.283 C 
HETATM    9  O   UNK N   1       9.843  16.302  46.005  0.00  0.00    -0.260 OA
BRANCH   8  10
HETATM   10  C   UNK N   1       7.926  15.898  44.716  0.00  0.00     0.083 C 
HETATM   11  C   UNK N   1       7.425  15.300  43.618  0.00  0.00     0.017 C 
BRANCH  11  12
HETATM   12  C   UNK N   1       5.976  15.052  43.382  0.00  0.00    -0.036 A 
HETATM   13  C   UNK N   1       5.549  14.835  42.062  0.00  0.00     0.014 A 
HETATM   14  C   UNK N   1       4.206  14.574  41.781  0.00  0.00     0.037 A 
HETATM   15  C   UNK N   1       3.270  14.518  42.816  0.00  0.00     0.065 A 
HETATM   16  C   UNK N   1       3.681  14.735  44.138  0.00  0.00     0.037 A 
HETATM   17  C   UNK N   1       5.023  15.003  44.424  0.00  0.00     0.014 A 
BRANCH  15  18
HETATM   18  O   UNK N   1       1.979  14.252  42.532  0.00  0.00    -0.361 OA
HETATM   19  H   UNK N   1       1.464  13.619  43.052  0.00  0.00     0.217 HD
ENDBRANCH  15  18
ENDBRANCH  11  12
ENDBRANCH   8  10
ENDBRANCH   7   8
ENDBRANCH   2   7
BRANCH   5  20
HETATM   20  O   UNK N   1      12.376  17.347  45.064  0.00  0.00    -0.390 OA
HETATM   21  H   UNK N   1      12.327  16.442  45.464  0.00  0.00     0.210 HD
ENDBRANCH   5  20
BRANCH   1  22
HETATM   22  O   UNK N   1      10.683  19.179  41.112  0.00  0.00    -0.379 OA
HETATM   23  H   UNK N   1      10.059  19.289  40.347  0.00  0.00     0.211 HD
ENDBRANCH   1  22
BRANCH   1  24
HETATM   24  C   UNK N   1      11.452  17.632  39.430  0.00  0.00     0.176 C 
HETATM   25  O   UNK N   1      12.365  16.963  38.966  0.00  0.00    -0.648 OA
BRANCH  24  26
HETATM   26  O   UNK N   1      10.455  18.056  38.621  0.00  0.00    -0.774 OA
HETATM   27  H   UNK N   1      10.006  18.899  38.776  0.00  0.00     0.167 HD
ENDBRANCH  24  26
ENDBRANCH   1  24
BRANCH   6  28
HETATM   28  O   UNK N   1      12.325  19.622  43.274  0.00  0.00    -0.393 OA
HETATM   29  H   UNK N   1      12.214  20.131  42.430  0.00  0.00     0.210 HD
ENDBRANCH   6  28
TORSDOF 10
ENDMDL
MODEL 7
REMARK VINA RESULT:      -7.0      4.466      8.825
REMARK  10 active torsions:
REMARK  status: ('A' for Active; 'I' for Inactive)
REMARK    1  A    between atoms: O_1  and  C_10 
REMARK    2  A    between atoms: O_1  and  C_16 
REMARK    3  A    between atoms: O_2  and  C_9 
REMARK    4  A    between atoms: O_3  and  C_13 
REMARK    5  A    between atoms: O_4  and  C_14 
REMARK    6  A    between atoms: O_5  and  C_15 
REMARK    7  A    between atoms: O_8  and  C_24 
REMARK    8  A    between atoms: C_9  and  C_15 
REMARK    9  A    between atoms: C_16  and  C_17 
REMARK   10  A    between atoms: C_18  and  C_19 
ROOT
HETATM    1  C   UNK N   1      11.683  18.156  43.074  0.00  0.00     0.147 C 
HETATM    2  C   UNK N   1      13.011  16.721  41.425  0.00  0.00     0.166 C 
HETATM    3  C   UNK N   1      13.081  17.784  42.535  0.00  0.00     0.084 C 
HETATM    4  C   UNK N   1      10.958  16.869  43.560  0.00  0.00     0.083 C 
HETATM    5  C   UNK N   1      12.315  15.450  41.974  0.00  0.00     0.176 C 
HETATM    6  C   UNK N   1      10.886  15.785  42.465  0.00  0.00     0.152 C 
ENDROOT
BRANCH   2   7
HETATM    7  O   UNK N   1      14.306  16.441  41.025  0.00  0.00    -0.310 OA
BRANCH   7   8
HETATM    8  C   UNK N   1      14.706  16.345  39.730  0.00  0.00     0.283 C 
HETATM    9  O   UNK N   1      14.253  17.093  38.877  0.00  0.00    -0.260 OA
BRANCH   8  10
HETATM   10  C   UNK N   1      15.723  15.335  39.375  0.00  0.00     0.083 C 
HETATM   11  C   UNK N   1      15.590  14.563  38.279  0.00  0.00     0.017 C 
BRANCH  11  12
HETATM   12  C   UNK N   1      16.591  13.555  37.834  0.00  0.00    -0.036 A 
HETATM   13  C   UNK N   1      17.668  13.996  37.049  0.00  0.00     0.014 A 
HETATM   14  C   UNK N   1      18.652  13.101  36.621  0.00  0.00     0.037 A 
HETATM   15  C   UNK N   1      18.578  11.753  36.976  0.00  0.00     0.065 A 
HETATM   16  C   UNK N   1      17.506  11.297  37.756  0.00  0.00     0.037 A 
HETATM   17  C   UNK N   1      16.516  12.188  38.182  0.00  0.00     0.014 A 
BRANCH  15  18
HETATM   18  O   UNK N   1      19.540  10.903  36.566  0.00  0.00    -0.361 OA
HETATM   19  H   UNK N   1      19.545   9.972  36.833  0.00  0.00     0.217 HD
ENDBRANCH  15  18
ENDBRANCH  11  12
ENDBRANCH   8  10
ENDBRANCH   7   8
ENDBRANCH   2   7
BRANCH   5  20
HETATM   20  O   UNK N   1      12.292  14.407  41.030  0.00  0.00    -0.390 OA
HETATM   21  H   UNK N   1      11.849  13.623  41.443  0.00  0.00     0.210 HD
ENDBRANCH   5  20
BRANCH   1  22
HETATM   22  O   UNK N   1      10.954  18.771  42.033  0.00  0.00    -0.379 OA
HETATM   23  H   UNK N   1      10.092  18.289  41.930  0.00  0.00     0.211 HD
ENDBRANCH   1  22
BRANCH   1  24
HETATM   24  C   UNK N   1      11.864  19.118  44.239  0.00  0.00     0.176 C 
HETATM   25  O   UNK N   1      12.582  20.102  44.129  0.00  0.00    -0.648 OA
BRANCH  24  26
HETATM   26  O   UNK N   1      11.236  18.875  45.411  0.00  0.00    -0.774 OA
HETATM   27  H   UNK N   1      10.793  19.582  45.900  0.00  0.00     0.167 HD
ENDBRANCH  24  26
ENDBRANCH   1  24
BRANCH   6  28
HETATM   28  O   UNK N   1      10.082  16.239  41.404  0.00  0.00    -0.393 OA
HETATM   29  H   UNK N   1       9.208  15.774  41.480  0.00  0.00     0.210 HD
ENDBRANCH   6  28
TORSDOF 10
ENDMDL
MODEL 8
REMARK VINA RESULT:      -7.0      2.806      6.958
REMARK  10 active torsions:
REMARK  status: ('A' for Active; 'I' for Inactive)
REMARK    1  A    between atoms: O_1  and  C_10 
REMARK    2  A    between atoms: O_1  and  C_16 
REMARK    3  A    between atoms: O_2  and  C_9 
REMARK    4  A    between atoms: O_3  and  C_13 
REMARK    5  A    between atoms: O_4  and  C_14 
REMARK    6  A    between atoms: O_5  and  C_15 
REMARK    7  A    between atoms: O_8  and  C_24 
REMARK    8  A    between atoms: C_9  and  C_15 
REMARK    9  A    between atoms: C_16  and  C_17 
REMARK   10  A    between atoms: C_18  and  C_19 
ROOT
HETATM    1  C   UNK N   1       8.556  16.821  43.550  0.00  0.00     0.147 C 
HETATM    2  C   UNK N   1       8.427  16.295  41.050  0.00  0.00     0.166 C 
HETATM    3  C   UNK N   1       8.755  15.754  42.453  0.00  0.00     0.084 C 
HETATM    4  C   UNK N   1       7.105  17.373  43.476  0.00  0.00     0.083 C 
HETATM    5  C   UNK N   1       6.960  16.794  41.023  0.00  0.00     0.176 C 
HETATM    6  C   UNK N   1       6.749  17.911  42.075  0.00  0.00     0.152 C 
ENDROOT
BRANCH   2   7
HETATM    7  O   UNK N   1       8.614  15.265  40.144  0.00  0.00    -0.310 OA
BRANCH   7   8
HETATM    8  C   UNK N   1       9.584  15.246  39.192  0.00  0.00     0.283 C 
HETATM    9  O   UNK N   1       9.314  15.453  38.019  0.00  0.00    -0.260 OA
BRANCH   8  10
HETATM   10  C   UNK N   1      10.979  14.999  39.607  0.00  0.00     0.083 C 
HETATM   11  C   UNK N   1      11.857  16.010  39.745  0.00  0.00     0.017 C 
BRANCH  11  12
HETATM   12  C   UNK N   1      13.266  15.845  40.200  0.00  0.00    -0.036 A 
HETATM   13  C   UNK N   1      13.799  16.817  41.062  0.00  0.00     0.014 A 
HETATM   14  C   UNK N   1      15.106  16.703  41.542  0.00  0.00     0.037 A 
HETATM   15  C   UNK N   1      15.898  15.614  41.172  0.00  0.00     0.065 A 
HETATM   16  C   UNK N   1      15.380  14.638  40.310  0.00  0.00     0.037 A 
HETATM   17  C   UNK N   1      14.074  14.750  39.823  0.00  0.00     0.014 A 
BRANCH  15  18
HETATM   18  O   UNK N   1      17.154  15.510  41.652  0.00  0.00    -0.361 OA
HETATM   19  H   UNK N   1      17.533  14.656  41.907  0.00  0.00     0.217 HD
ENDBRANCH  15  18
ENDBRANCH  11  12
ENDBRANCH   8  10
ENDBRANCH   7   8
ENDBRANCH   2   7
BRANCH   5  20
HETATM   20  O   UNK N   1       6.570  17.228  39.743  0.00  0.00    -0.390 OA
HETATM   21  H   UNK N   1       5.741  17.765  39.835  0.00  0.00     0.210 HD
ENDBRANCH   5  20
BRANCH   1  22
HETATM   22  O   UNK N   1       9.490  17.858  43.336  0.00  0.00    -0.379 OA
HETATM   23  H   UNK N   1       9.129  18.462  42.636  0.00  0.00     0.211 HD
ENDBRANCH   1  22
BRANCH   1  24
HETATM   24  C   UNK N   1       8.791  16.162  44.901  0.00  0.00     0.176 C 
HETATM   25  O   UNK N   1       8.181  15.149  45.214  0.00  0.00    -0.648 OA
BRANCH  24  26
HETATM   26  O   UNK N   1       9.672  16.707  45.768  0.00  0.00    -0.774 OA
HETATM   27  H   UNK N   1      10.152  17.519  45.554  0.00  0.00     0.167 HD
ENDBRANCH  24  26
ENDBRANCH   1  24
BRANCH   6  28
HETATM   28  O   UNK N   1       7.546  19.033  41.785  0.00  0.00    -0.393 OA
HETATM   29  H   UNK N   1       7.146  19.807  42.260  0.00  0.00     0.210 HD
ENDBRANCH   6  28
TORSDOF 10
ENDMDL
MODEL 9
REMARK VINA RESULT:      -6.9      2.992      7.912
REMARK  10 active torsions:
REMARK  status: ('A' for Active; 'I' for Inactive)
REMARK    1  A    between atoms: O_1  and  C_10 
REMARK    2  A    between atoms: O_1  and  C_16 
REMARK    3  A    between atoms: O_2  and  C_9 
REMARK    4  A    between atoms: O_3  and  C_13 
REMARK    5  A    between atoms: O_4  and  C_14 
REMARK    6  A    between atoms: O_5  and  C_15 
REMARK    7  A    between atoms: O_8  and  C_24 
REMARK    8  A    between atoms: C_9  and  C_15 
REMARK    9  A    between atoms: C_16  and  C_17 
REMARK   10  A    between atoms: C_18  and  C_19 
ROOT
HETATM    1  C   UNK N   1       8.154  16.793  43.838  0.00  0.00     0.147 C 
HETATM    2  C   UNK N   1      10.408  17.202  42.698  0.00  0.00     0.166 C 
HETATM    3  C   UNK N   1       9.654  16.429  43.795  0.00  0.00     0.084 C 
HETATM    4  C   UNK N   1       7.525  16.555  42.436  0.00  0.00     0.083 C 
HETATM    5  C   UNK N   1       9.764  16.898  41.322  0.00  0.00     0.176 C 
HETATM    6  C   UNK N   1       8.273  17.312  41.319  0.00  0.00     0.152 C 
ENDROOT
BRANCH   2   7
HETATM    7  O   UNK N   1      11.730  16.794  42.726  0.00  0.00    -0.310 OA
BRANCH   7   8
HETATM    8  C   UNK N   1      12.789  17.598  42.442  0.00  0.00     0.283 C 
HETATM    9  O   UNK N   1      12.929  18.671  43.008  0.00  0.00    -0.260 OA
BRANCH   8  10
HETATM   10  C   UNK N   1      13.784  17.136  41.455  0.00  0.00     0.083 C 
HETATM   11  C   UNK N   1      13.572  16.033  40.710  0.00  0.00     0.017 C 
BRANCH  11  12
HETATM   12  C   UNK N   1      14.507  15.530  39.666  0.00  0.00    -0.036 A 
HETATM   13  C   UNK N   1      14.633  16.272  38.480  0.00  0.00     0.014 A 
HETATM   14  C   UNK N   1      15.512  15.863  37.475  0.00  0.00     0.037 A 
HETATM   15  C   UNK N   1      16.283  14.710  37.641  0.00  0.00     0.065 A 
HETATM   16  C   UNK N   1      16.165  13.959  38.818  0.00  0.00     0.037 A 
HETATM   17  C   UNK N   1      15.282  14.361  39.825  0.00  0.00     0.014 A 
BRANCH  15  18
HETATM   18  O   UNK N   1      17.136  14.334  36.667  0.00  0.00    -0.361 OA
HETATM   19  H   UNK N   1      17.011  13.512  36.171  0.00  0.00     0.217 HD
ENDBRANCH  15  18
ENDBRANCH  11  12
ENDBRANCH   8  10
ENDBRANCH   7   8
ENDBRANCH   2   7
BRANCH   5  20
HETATM   20  O   UNK N   1      10.460  17.512  40.264  0.00  0.00    -0.390 OA
HETATM   21  H   UNK N   1      11.218  18.023  40.645  0.00  0.00     0.210 HD
ENDBRANCH   5  20
BRANCH   1  22
HETATM   22  O   UNK N   1       8.037  18.150  44.208  0.00  0.00    -0.379 OA
HETATM   23  H   UNK N   1       7.662  18.652  43.437  0.00  0.00     0.211 HD
ENDBRANCH   1  22
BRANCH   1  24
HETATM   24  C   UNK N   1       7.478  15.899  44.866  0.00  0.00     0.176 C 
HETATM   25  O   UNK N   1       7.885  14.763  45.067  0.00  0.00    -0.648 OA
BRANCH  24  26
HETATM   26  O   UNK N   1       6.411  16.359  45.555  0.00  0.00    -0.774 OA
HETATM   27  H   UNK N   1       5.988  15.827  46.243  0.00  0.00     0.167 HD
ENDBRANCH  24  26
ENDBRANCH   1  24
BRANCH   6  28
HETATM   28  O   UNK N   1       8.134  18.698  41.514  0.00  0.00    -0.393 OA
HETATM   29  H   UNK N   1       9.041  19.095  41.442  0.00  0.00     0.210 HD
ENDBRANCH   6  28
TORSDOF 10
ENDMDL
