@<TRIPOS>MOLECULE
LIG
41 42 1
SMALL
USER_CHARGES
@<TRIPOS>ATOM
1	C1    12.2500    18.0490    43.3970	C.3	1	noname	0.1087
2	C2    11.2680    16.5750    41.5510	C.3	1	noname	0.0984
3	C3    10.9910    17.6840    42.5810	C.3	1	noname	0.0054
4	C4    13.3980    18.4450    42.4260	C.3	1	noname	0.0045
5	C5    12.3910    17.0380    40.5880	C.3	1	noname	0.1069
6	C6    13.6850    17.3510    41.3770	C.3	1	noname	0.0850
7	C7     9.4200    15.1550    40.8750	C.2	1	noname	0.0967
8	C8     8.1830    15.0540    41.6750	C.2	1	noname	0.0599
9	C9     8.1940    15.2490    43.0080	C.2	1	noname	-0.0128
10	C10     6.9840    15.2070    43.8740	C.2	1	noname	-0.0564
11	C11     7.1430    15.4690    45.2450	C.2	1	noname	-0.0394
12	C12     6.0410    15.4680    46.1030	C.2	1	noname	-0.0292
13	C13     4.7620    15.2110    45.6050	C.2	1	noname	-0.0002
14	C14     4.5890    14.9440    44.2400	C.2	1	noname	-0.0292
15	C15     5.6890    14.9390    43.3770	C.2	1	noname	-0.0394
16	C16    11.9070    19.2260    44.2980	C.2	1	noname	-0.0561
17	O1    10.0920    16.3350    40.8600	O.3	1	noname	-0.2051
18	O2     9.8390    14.1870    40.2590	O.2	1	noname	-0.2605
19	O3     3.7060    15.2250    46.4430	O.3	1	noname	-0.2862
20	O4    12.6360    16.0990    39.5690	O.3	1	noname	-0.3876
21	O5    12.6200    16.9260    44.1680	O.3	1	noname	-0.3904
22	O6    12.5390    20.2710    44.2270	O.2	1	noname	-0.4700
23	O7    10.9010    19.1120    45.1940	O.3	1	noname	-0.4700
24	O8    14.1750    16.2000    42.0180	O.3	1	noname	-0.3901
25	H1     3.6190    15.8910    47.1400	H	1	noname	0.2181
26	H2    13.5000    15.6510    39.7600	H	1	noname	0.2106
27	H3    11.9810    16.8430    44.9240	H	1	noname	0.2103
28	H4    14.4220    16.4630    42.9430	H	1	noname	0.2105
29	H5    11.5921    15.6750    42.0305	H	1	noname	0.0639
30	H6    10.2299    17.3475    43.2536	H	1	noname	0.0320
31	H7    10.6802    18.5579    42.0475	H	1	noname	0.0320
32	H8    13.1225    19.3451    41.9172	H	1	noname	0.0319
33	H9    14.2857    18.5795    43.0081	H	1	noname	0.0319
34	H10    12.0554    17.9347    40.1102	H	1	noname	0.0655
35	H11    14.4272    17.6947    40.6871	H	1	noname	0.0629
36	H12     7.2927    14.8297    41.2038	H	1	noname	0.0686
37	H13     9.1023    15.4403    43.4590	H	1	noname	0.0631
38	H14     8.0836    15.6642    45.6220	H	1	noname	0.0629
39	H15     6.1724    15.6579    47.1088	H	1	noname	0.0650
40	H16     3.6452    14.7502    43.8702	H	1	noname	0.0650
41	H17     5.5545    14.7389    42.3736	H	1	noname	0.0629
@<TRIPOS>BOND
1	20	5	1
2	18	7	2
3	5	6	1
4	5	2	1
5	17	7	1
6	17	2	1
7	7	8	1
8	6	24	1
9	6	4	1
10	2	3	1
11	8	9	2
12	4	1	1
13	3	1	1
14	9	10	1
15	15	10	ar
16	15	14	ar
17	1	21	1
18	1	16	1
19	10	11	ar
20	22	16	2
21	14	13	ar
22	16	23	1
23	11	12	ar
24	13	12	ar
25	13	19	1
26	19	25	1
27	20	26	1
28	21	27	1
29	24	28	1
30	2	29	1
31	3	30	1
32	3	31	1
33	4	32	1
34	4	33	1
35	5	34	1
36	6	35	1
37	8	36	1
38	9	37	1
39	11	38	1
40	12	39	1
41	14	40	1
42	15	41	1
@<TRIPOS>SUBSTRUCTURE
1	noname	1
